L6/1726536/Linhas.dss
! ==========================================================
! LINHAS — geradas de SSDMT
! Barras = PAC_1 / PAC_2 da BDGD (preservados)
! ==========================================================
New Line.244160529 Bus1=node_427280250.1.2.3 Bus2=node_427280251.1.2.3 LineCode=CND_78_3F Length=133.45 Units=m
New Line.246090591 Bus1=node_436381486.1.2.3 Bus2=node_436380295.1.2.3 LineCode=CND_51_3F Length=74.73 Units=m
New Line.246091998 Bus1=node_429568690.1 Bus2=node_436693506.1 LineCode=CND_926_1F Length=126.07 Units=m
New Line.2054543984 Bus1=node_2428593338.1 Bus2=node_2428593108.1 LineCode=CND_926_1F Length=135.94 Units=m
New Line.1185178492 Bus1=node_1478952753.1.2.3 Bus2=node_1478952830.1.2.3 LineCode=CND_51_3F Length=41.52 Units=m
New Line.245932633 Bus1=node_435767752.1.2.3 Bus2=node_435765522.1.2.3 LineCode=CND_51_3F Length=110.80 Units=m
New Line.244333808 Bus1=node_427618456.1.2.3 Bus2=node_427618486.1.2.3 LineCode=CND_78_3F Length=133.39 Units=m
New Line.244980447 Bus1=node_431345814.2 Bus2=node_431345815.2 LineCode=CND_907_1F Length=126.71 Units=m
New Line.245934070 Bus1=node_436077856.1.2.3 Bus2=node_436077790.1.2.3 LineCode=CND_51_3F Length=81.80 Units=m
New Line.2440121359 Bus1=node_2608695332.1 Bus2=node_2608695342.1 LineCode=CND_911_1F Length=37.84 Units=m
New Line.244506272 Bus1=node_428433643.1.2.3 Bus2=node_428433647.1.2.3 LineCode=CND_31_3F Length=45.50 Units=m
New Line.245136567 Bus1=node_431503792.1 Bus2=node_431501647.1 LineCode=CND_907_1F Length=157.11 Units=m
New Line.246091121 Bus1=node_436534504.1.2.3 Bus2=node_436534505.1.2.3 LineCode=CND_51_3F Length=80.21 Units=m
New Line.243819115 Bus1=node_425216584.1.2.3 Bus2=node_425216585.1.2.3 LineCode=CND_20_3F Length=24.27 Units=m
New Line.246090435 Bus1=node_436380780.3 Bus2=node_436380775.3 LineCode=CND_926_1F Length=122.05 Units=m
New Line.247328320 Bus1=node_442805968.1.2.3 Bus2=node_442806608.1.2.3 LineCode=CND_11_3F Length=102.76 Units=m
New Line.533617964 Bus1=node_805695689.2 Bus2=node_805695690.2 LineCode=CND_910_1F Length=97.75 Units=m
New Line.634335536 Bus1=100_349238213.1.2.3 Bus2=node_902161028.1.2.3 LineCode=CND_3_3F Length=10.83 Units=m
New Line.244332974 Bus1=node_427446760.1.2.3 Bus2=node_427446850.1.2.3 LineCode=CND_78_3F Length=84.68 Units=m
New Line.244333425 Bus1=node_427448900.1.2.3 Bus2=node_427448909.1.2.3 LineCode=CND_78_3F Length=81.80 Units=m
New Line.2623359753 Bus1=node_2778266431.1.2.3 Bus2=node_2778265444.1.2.3 LineCode=CND_51_3F Length=138.67 Units=m
New Line.245932714 Bus1=node_435922785.1.2.3 Bus2=node_435767251.1.2.3 LineCode=CND_51_3F Length=117.84 Units=m
New Line.246090172 Bus1=node_436378787.1.2.3 Bus2=node_436379466.1.2.3 LineCode=CND_51_3F Length=96.50 Units=m
New Line.244333666 Bus1=node_427450305.1.2.3 Bus2=node_427450074.1.2.3 LineCode=CND_78_3F Length=79.76 Units=m
New Line.246091879 Bus1=node_436692906.1.2.3 Bus2=node_436692701.1.2.3 LineCode=CND_51_3F Length=127.48 Units=m
New Line.245932963 Bus1=node_435924026.1.2.3 Bus2=node_435923925.1.2.3 LineCode=CND_51_3F Length=83.40 Units=m
New Line.247326485 Bus1=node_442388500.3 Bus2=node_442539785.3 LineCode=CND_907_1F Length=93.75 Units=m
New Line.244160548 Bus1=node_427280345.1.2.3 Bus2=node_427280245.1.2.3 LineCode=CND_78_3F Length=139.14 Units=m
New Line.245932272 Bus1=node_435765952.1.2.3 Bus2=node_432136476.1.2.3 LineCode=CND_51_3F Length=127.87 Units=m
New Line.245932623 Bus1=node_435767652.1.2.3 Bus2=node_435766766.1.2.3 LineCode=CND_51_3F Length=142.47 Units=m
New Line.245933455 Bus1=node_435926486.1.2.3 Bus2=node_435925760.1.2.3 LineCode=CND_51_3F Length=80.71 Units=m
New Line.245771255 Bus1=node_435450382.1.2.3 Bus2=node_435291309.1.2.3 LineCode=CND_30_3F Length=104.44 Units=m
New Line.247328574 Bus1=node_442807113.3 Bus2=node_442807227.3 LineCode=CND_907_1F Length=63.45 Units=m
New Line.247328314 Bus1=node_442806577.2 Bus2=node_442806578.2 LineCode=CND_907_1F Length=113.44 Units=m
New Line.245302492 Bus1=node_432926039.1 Bus2=node_432926040.1 LineCode=CND_907_1F Length=139.68 Units=m
New Line.244160991 Bus1=node_427282562.1.2.3 Bus2=node_427282563.1.2.3 LineCode=CND_78_3F Length=83.49 Units=m
New Line.245932636 Bus1=node_435765613.1.2.3 Bus2=node_435767386.1.2.3 LineCode=CND_51_3F Length=143.23 Units=m
New Line.246090454 Bus1=node_436378302.1.2.3 Bus2=node_436378411.1.2.3 LineCode=CND_51_3F Length=74.60 Units=m
New Line.246090999 Bus1=100_1036619144.1 Bus2=node_436533895.1 LineCode=CND_926_1F Length=130.12 Units=m
New Line.246091138 Bus1=node_436534589.1.2.3 Bus2=node_436534590.1.2.3 LineCode=CND_51_3F Length=101.10 Units=m
New Line.244333537 Bus1=node_427449295.1.2.3 Bus2=node_427449359.1.2.3 LineCode=CND_78_3F Length=84.90 Units=m
New Line.247328364 Bus1=node_442806183.1 Bus2=node_442689834.1 LineCode=CND_907_1F Length=85.97 Units=m
New Line.247188141 Bus1=node_442255990.1.2.3 Bus2=node_442254095.1.2.3 LineCode=CND_11_3F Length=153.48 Units=m
New Line.245771187 Bus1=node_435291164.1.2.3 Bus2=node_435291165.1.2.3 LineCode=CND_30_3F Length=144.38 Units=m
New Line.246092014 Bus1=node_436692577.1.2.3 Bus2=node_436693586.1.2.3 LineCode=CND_51_3F Length=137.92 Units=m
New Line.244333843 Bus1=node_427618660.1.2.3 Bus2=node_427448754.1.2.3 LineCode=CND_78_3F Length=81.95 Units=m
New Line.247187463 Bus1=node_436221127.1.2.3 Bus2=node_442117316.1.2.3 LineCode=CND_11_3F Length=91.62 Units=m
New Line.245932811 Bus1=node_435923126.1.2.3 Bus2=node_435766951.1.2.3 LineCode=CND_51_3F Length=334.26 Units=m
New Line.247463086 Bus1=node_439373293.3 Bus2=node_443720847.3 LineCode=CND_907_1F Length=284.02 Units=m
New Line.1794669305 Bus1=node_2169767978.1.2.3 Bus2=node_2169767989.1.2.3 LineCode=CND_53_3F Length=125.46 Units=m
New Line.244333438 Bus1=node_427449160.1.2.3 Bus2=node_427449049.1.2.3 LineCode=CND_78_3F Length=81.14 Units=m
New Line.245930334 Bus1=node_435451391.1.2.3 Bus2=node_435451392.1.2.3 LineCode=CND_20_3F Length=35.00 Units=m
New Line.244333985 Bus1=node_427619370.1.2.3 Bus2=node_427619371.1.2.3 LineCode=CND_78_3F Length=85.37 Units=m
New Line.246091967 Bus1=node_436693212.1.2.3 Bus2=node_436693351.1.2.3 LineCode=CND_51_3F Length=80.98 Units=m
New Line.246090544 Bus1=node_436380451.2 Bus2=node_436380455.2 LineCode=CND_926_1F Length=155.06 Units=m
New Line.245933837 Bus1=node_436078651.2 Bus2=node_436078510.2 LineCode=CND_926_1F Length=124.21 Units=m
New Line.2569821951 Bus1=node_2720206807.1.2.3 Bus2=node_2720206817.1.2.3 LineCode=CND_51_3F Length=132.33 Units=m
New Line.245931960 Bus1=node_435764423.1.2.3 Bus2=node_435764424.1.2.3 LineCode=CND_51_3F Length=135.17 Units=m
New Line.247329604 Bus1=node_442940958.2 Bus2=node_442941848.2 LineCode=CND_907_1F Length=153.11 Units=m
New Line.246090991 Bus1=node_436533854.1.2.3 Bus2=node_436533749.1.2.3 LineCode=CND_51_3F Length=83.97 Units=m
New Line.490761906 Bus1=node_760950613.1 Bus2=node_760950596.1 LineCode=CND_907_1F Length=111.36 Units=m
New Line.245139500 Bus1=node_432136821.3 Bus2=node_432136822.3 LineCode=CND_907_1F Length=145.21 Units=m
New Line.246091881 Bus1=node_436692837.1.2.3 Bus2=node_435764618.1.2.3 LineCode=CND_51_3F Length=79.45 Units=m
New Line.244333308 Bus1=node_427447500.1.2.3 Bus2=node_427448399.1.2.3 LineCode=CND_78_3F Length=85.37 Units=m
New Line.245136679 Bus1=node_431641760.3 Bus2=node_431641575.3 LineCode=CND_907_1F Length=163.66 Units=m
New Line.246089512 Bus1=node_436220404.1.2.3 Bus2=node_436220957.1.2.3 LineCode=CND_51_3F Length=91.41 Units=m
New Line.478471860 Bus1=node_748470100.3 Bus2=node_748470116.3 LineCode=CND_907_1F Length=108.16 Units=m
New Line.533617054 Bus1=node_805693533.1 Bus2=node_805693547.1 LineCode=CND_910_1F Length=98.80 Units=m
New Line.247328711 Bus1=node_442808562.1 Bus2=node_442808382.1 LineCode=CND_907_1F Length=129.05 Units=m
New Line.349279476 Bus1=100_2430756263.1.2.3 Bus2=node_436693056.1.2.3 LineCode=CND_19_3F Length=16.78 Units=m
New Line.246092002 Bus1=node_436534260.1.2.3 Bus2=node_436693526.1.2.3 LineCode=CND_51_3F Length=79.42 Units=m
New Line.245770989 Bus1=node_435290170.1.2.3 Bus2=node_435290165.1.2.3 LineCode=CND_30_3F Length=120.57 Units=m
New Line.1869500467 Bus1=node_2190516179.1.2.3 Bus2=node_2190516190.1.2.3 LineCode=CND_51_3F Length=154.00 Units=m
New Line.245771114 Bus1=node_435290799.1.2.3 Bus2=node_435290800.1.2.3 LineCode=CND_30_3F Length=105.05 Units=m
New Line.247693257 Bus1=node_444601374.1.2.3 Bus2=node_444601375.1.2.3 LineCode=CND_13_3F Length=107.55 Units=m
New Line.247328217 Bus1=node_442806092.2 Bus2=node_442806093.2 LineCode=CND_907_1F Length=76.93 Units=m
New Line.247693982 Bus1=node_444605007.1.2.3 Bus2=node_444605008.1.2.3 LineCode=CND_13_3F Length=255.15 Units=m
New Line.247694211 Bus1=node_444670353.1.2.3 Bus2=node_444670442.1.2.3 LineCode=CND_13_3F Length=127.05 Units=m
New Line.245770955 Bus1=node_435289931.1.2.3 Bus2=node_435290001.1.2.3 LineCode=CND_30_3F Length=104.64 Units=m
New Line.244333836 Bus1=node_427618481.1.2.3 Bus2=node_427618626.1.2.3 LineCode=CND_78_3F Length=118.34 Units=m
New Line.246090651 Bus1=node_436381001.1.2.3 Bus2=node_436381861.1.2.3 LineCode=CND_51_3F Length=83.43 Units=m
New Line.244657895 Bus1=node_429569750.1.2.3 Bus2=node_429569725.1.2.3 LineCode=CND_11_3F Length=123.21 Units=m
New Line.243987794 Bus1=node_426296236.1.2.3 Bus2=node_426296256.1.2.3 LineCode=CND_13_3F Length=104.06 Units=m
New Line.245771067 Bus1=node_435290564.1 Bus2=node_435290565.1 LineCode=CND_911_1F Length=18.56 Units=m
New Line.245933802 Bus1=node_436078515.3 Bus2=node_436078430.3 LineCode=CND_926_1F Length=122.10 Units=m
New Line.245932356 Bus1=node_435766152.1.2.3 Bus2=node_435766412.1.2.3 LineCode=CND_51_3F Length=122.25 Units=m
New Line.245932418 Bus1=node_432137266.1.2.3 Bus2=node_435766722.1.2.3 LineCode=CND_51_3F Length=73.45 Units=m
New Line.247327533 Bus1=node_442686730.1 Bus2=node_442686731.1 LineCode=CND_907_1F Length=141.25 Units=m
New Line.244333984 Bus1=node_427619221.1.2.3 Bus2=node_427619275.1.2.3 LineCode=CND_78_3F Length=85.40 Units=m
New Line.1923596146 Bus1=node_2240888614.3 Bus2=node_2240888604.3 LineCode=CND_907_1F Length=155.19 Units=m
New Line.245138848 Bus1=node_431966095.1 Bus2=node_431966096.1 LineCode=CND_907_1F Length=132.68 Units=m
New Line.245139246 Bus1=node_432135551.3 Bus2=node_432135552.3 LineCode=CND_907_1F Length=161.80 Units=m
New Line.244333930 Bus1=node_427619091.1.2.3 Bus2=node_427619096.1.2.3 LineCode=CND_78_3F Length=76.87 Units=m
New Line.938028877 Bus1=node_1198748294.3 Bus2=node_1198748199.3 LineCode=CND_907_1F Length=354.42 Units=m
New Line.1104078072 Bus1=node_1373848494.1.2.3 Bus2=node_1373849735.1.2.3 LineCode=CND_64_3F Length=97.85 Units=m
New Line.2449298059 Bus1=node_436381861.1.2.3 Bus2=node_2614373242.1.2.3 LineCode=CND_51_3F Length=2.24 Units=m
New Line.245932353 Bus1=node_435765453.1.2.3 Bus2=node_435766397.1.2.3 LineCode=CND_51_3F Length=129.58 Units=m
New Line.245771095 Bus1=node_435290695.1.2.3 Bus2=node_435290699.1.2.3 LineCode=CND_30_3F Length=103.27 Units=m
New Line.245930428 Bus1=node_435451856.1.2.3 Bus2=node_435451137.1.2.3 LineCode=CND_20_3F Length=26.84 Units=m
New Line.245930478 Bus1=node_435452111.1 Bus2=node_435452107.1 LineCode=CND_911_1F Length=40.83 Units=m
New Line.246090088 Bus1=node_436378447.1.2.3 Bus2=node_436379042.1.2.3 LineCode=CND_51_3F Length=356.42 Units=m
New Line.245139733 Bus1=node_432136587.2 Bus2=node_432137987.2 LineCode=CND_907_1F Length=96.29 Units=m
New Line.245932832 Bus1=node_435923375.1.2.3 Bus2=node_435923376.1.2.3 LineCode=CND_51_3F Length=131.41 Units=m
New Line.245932879 Bus1=node_435923301.1.2.3 Bus2=node_428597167.1.2.3 LineCode=CND_51_3F Length=175.43 Units=m
New Line.246090683 Bus1=node_436382020.3 Bus2=node_436380700.3 LineCode=CND_926_1F Length=131.33 Units=m
New Line.245932527 Bus1=node_435766752.1.2.3 Bus2=node_435767206.1.2.3 LineCode=CND_51_3F Length=160.46 Units=m
New Line.2577945993 Bus1=node_2730168520.1 Bus2=node_431965867.1 LineCode=CND_907_1F Length=105.81 Units=m
New Line.244334034 Bus1=node_427619606.1.2.3 Bus2=node_427619616.1.2.3 LineCode=CND_78_3F Length=84.11 Units=m
New Line.1941824307 Bus1=node_2300356325.1.2.3 Bus2=node_2300356335.1.2.3 LineCode=CND_11_3F Length=129.50 Units=m
New Line.1539575244 Bus1=node_1858581081.1.2.3 Bus2=node_1858581092.1.2.3 LineCode=CND_53_3F Length=134.10 Units=m
New Line.246090421 Bus1=node_436380710.1 Bus2=node_436380711.1 LineCode=CND_926_1F Length=79.74 Units=m
New Line.244333525 Bus1=node_427449604.1.2.3 Bus2=node_427449534.1.2.3 LineCode=CND_78_3F Length=84.48 Units=m
New Line.514258876 Bus1=node_784391498.1 Bus2=node_784391458.1 LineCode=CND_907_1F Length=259.74 Units=m
New Line.247327259 Bus1=node_442543654.1 Bus2=node_442543599.1 LineCode=CND_1208_1F Length=116.84 Units=m
New Line.247329688 Bus1=node_441970230.3 Bus2=node_442942272.3 LineCode=CND_907_1F Length=123.80 Units=m
New Line.244160939 Bus1=node_427281688.1.2.3 Bus2=node_427282212.1.2.3 LineCode=CND_78_3F Length=86.59 Units=m
New Line.246089432 Bus1=node_436221118.1.2.3 Bus2=node_436221152.1.2.3 LineCode=CND_51_3F Length=101.11 Units=m
New Line.246090912 Bus1=node_436533455.1.2.3 Bus2=node_436533456.1.2.3 LineCode=CND_51_3F Length=106.69 Units=m
New Line.245933126 Bus1=node_435923871.1.2.3 Bus2=node_435924755.1.2.3 LineCode=CND_51_3F Length=103.48 Units=m
New Line.245932114 Bus1=node_2141434977.1.2.3 Bus2=node_435764453.1.2.3 LineCode=CND_51_3F Length=80.16 Units=m
New Line.246716198 Bus1=node_439372343.3 Bus2=node_726828237.3 LineCode=CND_907_1F Length=295.72 Units=m
New Line.244980329 Bus1=node_431345224.1 Bus2=node_431345225.1 LineCode=CND_907_1F Length=139.45 Units=m
New Line.245932649 Bus1=node_435767876.3 Bus2=node_435767877.3 LineCode=CND_926_1F Length=127.20 Units=m
New Line.245771221 Bus1=node_435291300.1.2.3 Bus2=node_435291335.1.2.3 LineCode=CND_30_3F Length=90.39 Units=m
New Line.245932617 Bus1=node_435767592.3 Bus2=node_435767717.3 LineCode=CND_926_1F Length=110.38 Units=m
New Line.244161009 Bus1=node_427282652.1.2.3 Bus2=node_427282653.1.2.3 LineCode=CND_78_3F Length=76.51 Units=m
New Line.245770994 Bus1=node_435290041.1.2.3 Bus2=node_435290190.1.2.3 LineCode=CND_30_3F Length=96.83 Units=m
New Line.245933795 Bus1=node_436078480.1.2.3 Bus2=node_436078355.1.2.3 LineCode=CND_51_3F Length=110.59 Units=m
New Line.246089277 Bus1=node_436220398.1.2.3 Bus2=node_436220399.1.2.3 LineCode=CND_51_3F Length=103.64 Units=m
New Line.245932137 Bus1=node_435765312.1.2.3 Bus2=node_435765307.1.2.3 LineCode=CND_51_3F Length=93.04 Units=m
New Line.247186230 Bus1=node_441971619.1.2.3 Bus2=node_441971620.1.2.3 LineCode=CND_11_3F Length=126.75 Units=m
New Line.245138466 Bus1=node_431808513.3 Bus2=node_431964182.3 LineCode=CND_907_1F Length=132.10 Units=m
New Line.244160974 Bus1=node_427282477.1.2.3 Bus2=node_427282478.1.2.3 LineCode=CND_78_3F Length=116.06 Units=m
New Line.245771367 Bus1=node_435450946.1 Bus2=node_435450921.1 LineCode=CND_911_1F Length=35.24 Units=m
New Line.246089987 Bus1=node_436378536.1.2.3 Bus2=node_436378537.1.2.3 LineCode=CND_51_3F Length=72.01 Units=m
New Line.514682902 Bus1=node_800342772.1.2.3 Bus2=node_800342789.1.2.3 LineCode=CND_53_3F Length=98.01 Units=m
New Line.246090755 Bus1=node_436532656.3 Bus2=node_436532671.3 LineCode=CND_926_1F Length=113.67 Units=m
New Line.246091965 Bus1=node_436693340.2 Bus2=node_436693341.2 LineCode=CND_926_1F Length=133.30 Units=m
New Line.245458371 Bus1=node_431644955.3 Bus2=node_433081452.3 LineCode=CND_907_1F Length=111.45 Units=m
New Line.246089306 Bus1=node_436220543.1.2.3 Bus2=node_436220544.1.2.3 LineCode=CND_51_3F Length=157.21 Units=m
New Line.246091844 Bus1=node_435764669.1.2.3 Bus2=node_435765272.1.2.3 LineCode=CND_51_3F Length=65.95 Units=m
New Line.475079625 Bus1=node_744927619.1 Bus2=node_744927630.1 LineCode=CND_910_1F Length=123.42 Units=m
New Line.245458372 Bus1=node_433081488.3 Bus2=node_433082818.3 LineCode=CND_907_1F Length=99.18 Units=m
New Line.514258908 Bus1=node_784391561.1 Bus2=node_784391594.1 LineCode=CND_907_1F Length=265.16 Units=m
New Line.245771263 Bus1=node_435450422.1.2.3 Bus2=node_435450272.1.2.3 LineCode=CND_30_3F Length=92.11 Units=m
New Line.244657856 Bus1=node_429569555.1.2.3 Bus2=node_429569556.1.2.3 LineCode=CND_20_3F Length=27.71 Units=m
New Line.1731899158 Bus1=node_2057925409.1.2.3 Bus2=node_2057925633.1.2.3 LineCode=CND_1366_3F Length=2.63 Units=m
New Line.246091261 Bus1=node_436535105.1.2.3 Bus2=node_436535205.1.2.3 LineCode=CND_51_3F Length=375.54 Units=m
New Line.244333513 Bus1=node_427449335.1.2.3 Bus2=node_427449545.1.2.3 LineCode=CND_78_3F Length=78.26 Units=m
New Line.247327704 Bus1=node_442687589.1.2.3 Bus2=node_442686181.1.2.3 LineCode=CND_19_3F Length=33.96 Units=m
New Line.245933602 Bus1=node_436077515.1.2.3 Bus2=node_436077516.1.2.3 LineCode=CND_51_3F Length=101.44 Units=m
New Line.938028881 Bus1=node_1198748239.3 Bus2=node_1198748249.3 LineCode=CND_907_1F Length=154.91 Units=m
New Line.245771174 Bus1=node_435290855.1.2.3 Bus2=node_435290994.1.2.3 LineCode=CND_30_3F Length=127.92 Units=m
New Line.247328028 Bus1=node_442689204.1.2.3 Bus2=node_442689210.1.2.3 LineCode=CND_19_3F Length=12.37 Units=m
New Line.244333551 Bus1=node_427449690.1.2.3 Bus2=node_427449735.1.2.3 LineCode=CND_78_3F Length=186.73 Units=m
New Line.244160798 Bus1=node_427281583.1.2.3 Bus2=node_427281562.1.2.3 LineCode=CND_78_3F Length=85.49 Units=m
New Line.245771318 Bus1=node_435450697.1.2.3 Bus2=node_435450692.1.2.3 LineCode=CND_30_3F Length=92.05 Units=m
New Line.245930298 Bus1=node_435451211.1.2.3 Bus2=node_435451212.1.2.3 LineCode=CND_20_3F Length=29.56 Units=m
New Line.245930361 Bus1=node_435451247.1.2.3 Bus2=node_435450787.1.2.3 LineCode=CND_20_3F Length=32.93 Units=m
New Line.246090719 Bus1=node_436381881.1.2.3 Bus2=node_436078720.1.2.3 LineCode=CND_51_3F Length=184.88 Units=m
New Line.246091024 Bus1=node_436534019.1.2.3 Bus2=node_436221857.1.2.3 LineCode=CND_51_3F Length=89.23 Units=m
New Line.245139548 Bus1=node_432137061.1 Bus2=node_432137062.1 LineCode=CND_907_1F Length=128.55 Units=m
New Line.244160904 Bus1=node_427280811.1.2.3 Bus2=node_427282037.1.2.3 LineCode=CND_78_3F Length=131.99 Units=m
New Line.244160946 Bus1=node_427282337.1.2.3 Bus2=node_427282338.1.2.3 LineCode=CND_78_3F Length=84.08 Units=m
New Line.244334015 Bus1=node_427619181.1.2.3 Bus2=node_427619455.1.2.3 LineCode=CND_78_3F Length=64.51 Units=m
New Line.246089576 Bus1=node_436079586.1.2.3 Bus2=node_436221898.1.2.3 LineCode=CND_51_3F Length=88.98 Units=m
New Line.245138643 Bus1=node_431502973.1 Bus2=node_431965067.1 LineCode=CND_907_1F Length=120.07 Units=m
New Line.244333391 Bus1=node_427448934.1.2.3 Bus2=node_427448935.1.2.3 LineCode=CND_78_3F Length=120.19 Units=m
New Line.1827960576 Bus1=node_2150518544.1.2.3 Bus2=node_2150518523.1.2.3 LineCode=CND_51_3F Length=96.24 Units=m
New Line.245933241 Bus1=node_435925420.1.2.3 Bus2=node_435925421.1.2.3 LineCode=CND_51_3F Length=100.59 Units=m
New Line.246090501 Bus1=node_436380996.1.2.3 Bus2=node_436380955.1.2.3 LineCode=CND_141_3F Length=39.04 Units=m
New Line.247329430 Bus1=node_442940977.3 Bus2=node_442939877.3 LineCode=CND_907_1F Length=151.80 Units=m
New Line.244161133 Bus1=node_427446444.1.2.3 Bus2=node_427446445.1.2.3 LineCode=CND_78_3F Length=86.74 Units=m
New Line.247693749 Bus1=node_444602384.1.2.3 Bus2=node_444603797.1.2.3 LineCode=CND_13_3F Length=142.54 Units=m
New Line.514258918 Bus1=node_784391571.1 Bus2=node_784391619.1 LineCode=CND_907_1F Length=222.24 Units=m
New Line.246090772 Bus1=node_436379851.1.2.3 Bus2=node_436532756.1.2.3 LineCode=CND_51_3F Length=79.20 Units=m
New Line.245771023 Bus1=node_435290251.1.2.3 Bus2=node_435289915.1.2.3 LineCode=CND_30_3F Length=100.14 Units=m
New Line.2577945954 Bus1=node_2730168440.1 Bus2=node_2730168450.1 LineCode=CND_907_1F Length=132.12 Units=m
New Line.246089814 Bus1=node_436223087.1.2.3 Bus2=node_436223082.1.2.3 LineCode=CND_51_3F Length=90.24 Units=m
New Line.534818538 Bus1=node_804891313.3 Bus2=node_804891363.3 LineCode=CND_907_1F Length=104.41 Units=m
New Line.247327526 Bus1=node_442540870.2 Bus2=node_442686696.2 LineCode=CND_907_1F Length=155.18 Units=m
New Line.246091185 Bus1=node_436378867.1.2.3 Bus2=node_436534799.1.2.3 LineCode=CND_51_3F Length=149.70 Units=m
New Line.533617554 Bus1=node_805694692.1.2.3 Bus2=node_805694703.1.2.3 LineCode=CND_53_3F Length=115.74 Units=m
New Line.246090918 Bus1=node_436533485.1.2.3 Bus2=node_436533486.1.2.3 LineCode=CND_51_3F Length=107.08 Units=m
New Line.1182589070 Bus1=node_1454768570.1.2.3 Bus2=node_1249644318.1.2.3 LineCode=CND_53_3F Length=109.19 Units=m
New Line.243987683 Bus1=node_426295696.1.2.3 Bus2=node_426295701.1.2.3 LineCode=CND_13_3F Length=136.22 Units=m
New Line.245771175 Bus1=node_435290785.1.2.3 Bus2=node_435291024.1.2.3 LineCode=CND_30_3F Length=94.73 Units=m
New Line.533616894 Bus1=node_805693169.1.2.3 Bus2=node_805693180.1.2.3 LineCode=CND_53_3F Length=95.62 Units=m
New Line.244161081 Bus1=node_427282183.1.2.3 Bus2=node_427283007.1.2.3 LineCode=CND_78_3F Length=84.94 Units=m
New Line.621586632 Bus1=node_889880164.1 Bus2=node_889880189.1 LineCode=CND_907_1F Length=122.16 Units=m
New Line.2581261813 Bus1=node_2733601051.1.2.3 Bus2=node_2733601046.1.2.3 LineCode=CND_51_3F Length=103.54 Units=m
New Line.246091909 Bus1=node_436693056.1.2.3 Bus2=node_436692891.1.2.3 LineCode=CND_51_3F Length=118.59 Units=m
New Line.244333097 Bus1=node_427447430.1.2.3 Bus2=node_427447439.1.2.3 LineCode=CND_78_3F Length=82.21 Units=m
New Line.1612982681 Bus1=node_1934391643.1.2.3 Bus2=node_1934391654.1.2.3 LineCode=CND_46_3F Length=103.86 Units=m
New Line.245932579 Bus1=node_435767526.1.2.3 Bus2=node_435767527.1.2.3 LineCode=CND_51_3F Length=115.27 Units=m
New Line.534818707 Bus1=node_804890997.3 Bus2=node_804890947.3 LineCode=CND_907_1F Length=173.64 Units=m
New Line.1933691668 Bus1=node_2748096074.1.2.3 Bus2=node_2748096087.1.2.3 LineCode=CND_51_3F Length=121.46 Units=m
New Line.1821566376 Bus1=node_2144689891.3 Bus2=node_2144689944.3 LineCode=CND_910_1F Length=2.48 Units=m
New Line.245139133 Bus1=node_431967520.3 Bus2=node_431967521.3 LineCode=CND_907_1F Length=86.13 Units=m
New Line.514682558 Bus1=node_800342089.1.2.3 Bus2=node_800342100.1.2.3 LineCode=CND_53_3F Length=96.35 Units=m
...
